Circuit: * C:\Users\HP\Desktop\Files\UROP S2022\transimpedance_amp.asc

WARNING: Node NC_01 is floating.
WARNING: Node NC_02 is floating.

WARNING: Less than two connections to node NC_01.  This node is used by C3.
WARNING: Less than two connections to node NC_02.  This node is used by C4.
Instance "m:u2:6": Length shorter than recommended for a level 2 MOSFET.
Instance "m:u2:5": Length shorter than recommended for a level 2 MOSFET.
Instance "m:u2:4": Length shorter than recommended for a level 2 MOSFET.
Instance "m:u2:3": Length shorter than recommended for a level 2 MOSFET.
Instance "m:u2:2": Length shorter than recommended for a level 2 MOSFET.
Instance "m:u2:1": Length shorter than recommended for a level 2 MOSFET.
Instance "m:u1:6": Length shorter than recommended for a level 2 MOSFET.
Instance "m:u1:5": Length shorter than recommended for a level 2 MOSFET.
Instance "m:u1:4": Length shorter than recommended for a level 2 MOSFET.
Instance "m:u1:3": Length shorter than recommended for a level 2 MOSFET.
Instance "m:u1:2": Length shorter than recommended for a level 2 MOSFET.
Instance "m:u1:1": Length shorter than recommended for a level 2 MOSFET.
Direct Newton iteration failed to find .op point.  (Use ".option noopiter" to skip.)
Starting Gmin stepping
Gmin = 10
Gmin = 1.07374
Gmin = 0.115292
Gmin = 0.0123794
Gmin = 0.00132923
vernier = 0.5
vernier = 0.25
Gmin = 0.00053587
vernier = 0.125
vernier = 0.0625
vernier = 0.03125
vernier = 0.015625
Gmin = 0.00056056
vernier = 0.0078125
vernier = 0.00390625
vernier = 0.00195313
vernier = 0.000976563
Gmin = 0.000561378
vernier = 0.000488281
Gmin = 0
Gmin stepping failed

Starting source stepping with srcstepmethod=0
Source Step = 3.0303%
Source Step = 33.3333%
Source Step = 33.3481%
Source Step = 33.3777%
Source Step = 33.4073%
Source Step = 33.4369%
Source Step = 33.4665%
vernier = 0.00146484
Source Step = 33.4991%
Source Step = 33.5434%
Source Step = 33.5878%
Source Step = 33.6322%
Source Step = 33.6766%
vernier = 0.00219727
Source Step = 33.7232%
Source Step = 33.7898%
Source Step = 33.8564%
Source Step = 33.923%
Source Step = 33.9896%
Source Step = 34.0561%
vernier = 0.0032959
Source Step = 34.156%
Source Step = 34.2559%
Source Step = 34.3558%
Source Step = 34.4556%
Source Step = 34.5555%
vernier = 0.00494385
Source Step = 34.7003%
Source Step = 34.8501%
Source Step = 35%
Source Step = 35.1498%
Source Step = 35.2996%
vernier = 0.00741577
Source Step = 35.5093%
Source Step = 35.734%
Source Step = 35.9588%
Source Step = 36.1835%
Source Step = 36.4082%
vernier = 0.0111237
Source Step = 36.7116%
Source Step = 37.0487%
Source Step = 37.3857%
Source Step = 37.7228%
Source Step = 38.0599%
vernier = 0.0166855
Source Step = 38.4981%
Source Step = 39.0037%
Source Step = 39.5094%
Source Step = 40.015%
Source Step = 40.5206%
vernier = 0.0250282
Source Step = 41.1526%
Source Step = 41.9111%
Source Step = 42.6695%
Source Step = 43.4279%
Source Step = 44.1863%
vernier = 0.0375423
Source Step = 45.0965%
Source Step = 46.2341%
Source Step = 47.3718%
Source Step = 48.5094%
Source Step = 49.647%
vernier = 0.0563135
Source Step = 50.9553%
Source Step = 52.6618%
Source Step = 54.3683%
Source Step = 56.0748%
Source Step = 57.7812%
vernier = 0.0844703
Source Step = 59.6583%
Source Step = 62.218%
Source Step = 64.7777%
Source Step = 67.3375%
Source Step = 69.8972%
vernier = 0.126705
Source Step = 72.5849%
Source Step = 76.4244%
Source Step = 80.264%
Source Step = 84.1035%
Source Step = 87.9431%
Source Step = 91.7826%
vernier = 0.190058
Source Step = 97.542%
Source Step = 100%
Source stepping succeeded in finding the operating point.


Date: Wed Mar 02 02:26:05 2022
Total elapsed time: 0.696 seconds.

tnom = 27
temp = 27
method = modified trap
totiter = 4770
traniter = 132
tranpoints = 67
accept = 67
rejected = 0
matrix size = 84
fillins = 61
solver = Normal
Matrix Compiler1: 6.53 KB object code size  2.4/1.7/[0.5]
Matrix Compiler2: 8.62 KB object code size  2.1/2.5/[0.8]

